
Note: Compatibility modes selected: hs a

Warning: m=xx on .subckt line will override multiplier m hierarchy!


Circuit: ** sch_path: /home/zwierzak/projects/sky130_opamp_git/opamp_cascode_dc_response.sch

option SCALE: Scale is set to 1e-06 for instance and model parameters
Doing analysis at TEMP = 27.000000 and TNOM = 27.000000


No. of Data Rows : 20000
ERROR: (internal)  This operation is not defined for display type PrinterOnly.
Can't open viewport for graphics.
binary raw file "/home/zwierzak/projects/SKY130_OpAmp_GIT/simulation/opamp_cascode_dc_response.raw"
Doing analysis at TEMP = 27.000000 and TNOM = 27.000000


Total analysis time (seconds) = 2.256

Total elapsed time (seconds) = 53.373 

Total DRAM available = 5934.477 MB.
DRAM currently available = 1057.172 MB.
Maximum ngspice program size =  681.969 MB.
Current ngspice program size =  666.125 MB.

Shared ngspice pages =   10.570 MB.
Text (code) pages =    5.449 MB.
Stack = 0 bytes.
Library pages =  663.664 MB.

